10
c10
  C      2.4044      0.7559      0.0000
  C      2.4328     -0.6584      0.0000
  C      1.2672     -1.3753      0.0000
  C      0.0142     -0.7050      0.0000
  C     -0.0142      0.7048      0.0000
  C      1.2108      1.4252      0.0000
  C     -1.2672      1.3754      0.0000
  C     -2.4328      0.6585      0.0000
  C     -2.4043     -0.7558      0.0000
  C     -1.2108     -1.4254      0.0000
